37

C         -1.28360        0.07796       -0.00494
C         -0.39890        1.12997       -0.00302
O          0.88262        0.68189        0.00123
C          0.81616       -0.67575        0.01014
C         -0.50076       -1.08949       -0.00208
C          2.05756       -1.41106        0.03835
C          3.31372       -0.79380       -0.07261
C          4.47325       -1.55691       -0.06426
C          4.38111       -2.93839        0.00973
C          3.10776       -3.56550        0.10112
C          1.97466       -2.79874        0.14995
C          2.97341       -4.93479        0.05795
C          4.09106       -5.66608       -0.23976
C          5.38456       -5.08151       -0.19494
C          5.51779       -3.71364       -0.04053
C          6.57661       -5.90699       -0.21969
N          7.84408       -5.54265       -0.21078
C          8.64504       -6.69075       -0.16296
C          7.95483       -7.88807       -0.14237
S          6.30155       -7.56194       -0.11956
C          8.33637       -9.26436       -0.13209
N          9.57394       -9.70035       -0.14640
C          9.55696      -11.08687       -0.14851
C          8.32048      -11.68923       -0.13663
S          7.11558      -10.51547       -0.12040
H         -2.36059        0.13164       -0.00604
H         -0.51328        2.20270       -0.00183
H         -0.84316       -2.11421       -0.00222
H          3.39696        0.28266       -0.18319
H          5.44558       -1.07836       -0.17232
H          1.00873       -3.29797        0.21127
H          2.01788       -5.44224        0.18341
H          3.92720       -6.71494       -0.47669
H          6.50974       -3.26555        0.00728
H          9.72239       -6.56859       -0.15163
H         10.49255      -11.62392       -0.15999
H          8.04211      -12.72904       -0.13635
