35

N         -0.96581        1.51325       -0.00469
S          0.69551        1.40150       -0.00974
N          0.80651       -0.22041       -0.03558
C         -0.43680       -0.74325       -0.00752
C         -1.42495        0.25380       -0.00891
C         -0.50675       -2.22520        0.02844
C         -1.41524       -3.27439        0.01728
N         -0.81524       -4.55323        0.00148
C          0.48912       -4.37232        0.02412
S          1.05569       -2.83512        0.16551
C          1.56417       -5.26158       -0.04052
N          2.82239       -4.84287       -0.01959
C          3.65446       -5.90398       -0.01072
C          2.97534       -7.09992       -0.00176
S          1.28861       -6.87718       -0.17164
C          3.43492       -8.44049        0.08000
C          2.49657       -9.45952        0.35344
C          2.86093      -10.76640        0.33114
C          4.16829      -11.06668        0.04340
C          5.14440      -10.03539       -0.18015
C          4.76536       -8.72261       -0.15571
C          6.44888      -10.36630       -0.47667
C          6.75778      -11.69080       -0.72370
C          5.77927      -12.68639       -0.58739
C          4.52238      -12.37993       -0.09871
H         -2.49094        0.11962        0.00021
H         -2.50211       -3.26703       -0.00127
H          4.72540       -5.73075        0.01656
H          1.44717       -9.25267        0.53932
H          2.08459      -11.51566        0.47965
H          5.48052       -7.92897       -0.39037
H          7.21229       -9.59122       -0.56987
H          7.75915      -11.95467       -1.03631
H          5.99439      -13.70570       -0.87534
H          3.79701      -13.16489        0.11717
